178
Model[1]: Jmol 14.30.2  2019-11-26 10:18
C      -2.43410     -4.93060     -0.08790
C      -1.73530      2.39920      3.02450
C      -1.51260      2.39920     -3.14180
C      -1.53280     -4.55080     -1.26960
C      -0.33750     -5.28630     -1.51140
C      -0.44560     -5.28630      1.48311
C      -1.62040     -4.55080      1.15580
C      -1.82950     -3.30110      1.76930
H      -2.74480     -2.73131      1.53930
C      -0.78440     -2.69590      2.49420
C       0.45900     -3.36990      2.65040
C       0.60630     -4.68790      2.21110
H       1.56040     -5.21740      2.35940
C       1.51260     -2.39920      3.14180
H       1.83900     -2.61790      4.18410
H       2.42820     -2.42840      2.51440
C       0.78790     -1.06980      3.08180
C      -0.60940     -1.29700      2.88870
C       1.30860      0.22500      3.04800
H       2.39550      0.40221      3.05830
C       0.39940      1.29700      2.92500
C      -1.00810      1.06980      3.01700
C      -1.52500     -0.22500      2.94570
H      -2.60990     -0.40221      2.87760
C       0.60240      2.69590      2.54430
C       1.69710      3.30110      1.89670
H       2.62660      2.73131      1.73330
C       1.53280      4.55080      1.26960
C       0.33750      5.28630      1.51140
C      -0.76420      4.68790      2.16160
H      -1.72660      5.21740      2.24060
C      -0.64900      3.36990      2.61040
C       2.43410      4.93060      0.08790
H       2.68470      6.01110      0.09700
H       3.38070      4.35670      0.12220
C       1.62040      4.55080     -1.15580
C       0.44560      5.28630     -1.48311
C      -0.60630      4.68790     -2.21110
H      -1.56040      5.21740     -2.35940
C      -0.45900      3.36990     -2.65040
C       0.78440      2.69590     -2.49420
C       1.82950      3.30110     -1.76930
H       2.74480      2.73131     -1.53930
C       0.60940      1.29700     -2.88870
C      -0.78790      1.06980     -3.08180
C      -1.30860     -0.22500     -3.04800
H      -2.39550     -0.40221     -3.05830
C      -0.39940     -1.29700     -2.92500
C       1.00810     -1.06980     -3.01700
C       1.52500      0.22500     -2.94570
H       2.60990      0.40221     -2.87760
C       1.73530     -2.39920     -3.02450
H       2.13600     -2.61790     -4.04050
H       2.60330     -2.42840     -2.33260
C       0.64900     -3.36990     -2.61040
C       0.76420     -4.68790     -2.16160
H       1.72660     -5.21740     -2.24060
C      -1.69710     -3.30110     -1.89670
H      -2.62660     -2.73131     -1.73330
C      -0.60240     -2.69590     -2.54430
H      -2.60330      2.42840      2.33260
H      -2.13600      2.61790      4.04050
H      -2.68470     -6.01110     -0.09700
H      -3.38070     -4.35670     -0.12220
H      -2.42820      2.42840     -2.51440
H      -1.83900      2.61790     -4.18410
Au      0.00000     -6.66960      0.00000
Au     -1.07490     -9.70930     -1.38940
Au      1.50870     -9.83760     -0.11490
Au     -0.88580     -9.72340      1.48800
Au     -2.11390    -12.01340     -2.77760
Au      0.46971    -12.14180     -1.50300
Au      3.05330    -12.27000     -0.22850
Au     -1.92480    -12.02780      0.09990
Au      0.65880    -12.15610      1.37440
Au     -1.73570    -12.04200      2.97740
Au     -3.15290    -14.31770     -4.16570
Au     -0.56930    -14.44600     -2.89130
Au      2.01430    -14.57440     -1.61671
Au      4.59790    -14.70260     -0.34221
Au     -2.96380    -14.33200     -1.28830
Au     -0.38020    -14.46030     -0.01370
Au      2.20330    -14.58860      1.26080
Au     -2.77460    -14.34630      1.58920
Au     -0.19110    -14.47470      2.86380
Au     -2.58560    -14.36050      4.46670
Au     -4.19200    -16.62180     -5.55390
Au     -1.60840    -16.75020     -4.27930
Au      0.97530    -16.87850     -3.00490
Au      3.55891    -17.00690     -1.73030
Au      6.14240    -17.13520     -0.45571
Au     -4.00300    -16.63610     -2.67650
Au     -1.41930    -16.76450     -1.40180
Au      1.16440    -16.89290     -0.12740
Au      3.74800    -17.02120      1.14720
Au     -3.81370    -16.65050      0.20111
Au     -1.23010    -16.77870      1.47560
Au      1.35350    -16.90710      2.75020
Au     -3.62450    -16.66480      3.07860
Au     -1.04100    -16.79310      4.35310
Au     -3.43540    -16.67900      5.95600
Au     -5.23100    -18.92600     -6.94200
Au     -2.64740    -19.05440     -5.66750
Au     -0.06380    -19.18270     -4.39300
Au      2.51980    -19.31100     -3.11840
Au      5.10340    -19.43930     -1.84380
Au      7.68700    -19.56770     -0.56940
Au     -5.04180    -18.94040     -4.06450
Au     -2.45820    -19.06860     -2.79000
Au      0.12541    -19.19710     -1.51550
Au      2.70900    -19.32530     -0.24090
Au      5.29260    -19.45370      1.03370
Au     -4.85270    -18.95460     -1.18711
Au     -2.26910    -19.08300      0.08750
Au      0.31450    -19.21120      1.36190
Au      2.89810    -19.33970      2.63650
Au     -4.66350    -18.96900      1.69040
Au     -2.07990    -19.09730      2.96500
Au      0.50370    -19.22560      4.23940
Au     -4.47440    -18.98330      4.56790
Au     -1.89070    -19.11160      5.84240
Au     -4.28530    -18.99750      7.44540
Au      0.00000      6.66960      0.00000
Au      1.07490      9.70930      1.38940
Au     -1.50870      9.83760      0.11490
Au      0.88580      9.72340     -1.48800
Au      2.11390     12.01340      2.77760
Au     -0.46971     12.14180      1.50300
Au     -3.05330     12.27000      0.22850
Au      1.92480     12.02780     -0.09990
Au     -0.65880     12.15610     -1.37440
Au      1.73570     12.04200     -2.97740
Au      3.15290     14.31770      4.16570
Au      0.56930     14.44600      2.89130
Au     -2.01430     14.57440      1.61671
Au     -4.59790     14.70260      0.34221
Au      2.96380     14.33200      1.28830
Au      0.38020     14.46030      0.01370
Au     -2.20330     14.58860     -1.26080
Au      2.77460     14.34630     -1.58920
Au      0.19110     14.47470     -2.86380
Au      2.58560     14.36050     -4.46670
Au      4.19200     16.62180      5.55390
Au      1.60840     16.75020      4.27930
Au     -0.97530     16.87850      3.00490
Au     -3.55891     17.00690      1.73030
Au     -6.14240     17.13520      0.45571
Au      4.00300     16.63610      2.67650
Au      1.41930     16.76450      1.40180
Au     -1.16440     16.89290      0.12740
Au     -3.74800     17.02120     -1.14720
Au      3.81370     16.65050     -0.20111
Au      1.23010     16.77870     -1.47560
Au     -1.35350     16.90710     -2.75020
Au      3.62450     16.66480     -3.07860
Au      1.04100     16.79310     -4.35310
Au      3.43540     16.67900     -5.95600
Au      5.23100     18.92600      6.94200
Au      2.64740     19.05440      5.66750
Au      0.06380     19.18270      4.39300
Au     -2.51980     19.31100      3.11840
Au     -5.10340     19.43930      1.84380
Au     -7.68700     19.56770      0.56940
Au      5.04180     18.94040      4.06450
Au      2.45820     19.06860      2.79000
Au     -0.12541     19.19710      1.51550
Au     -2.70900     19.32530      0.24090
Au     -5.29260     19.45370     -1.03370
Au      4.85270     18.95460      1.18711
Au      2.26910     19.08300     -0.08750
Au     -0.31450     19.21120     -1.36190
Au     -2.89810     19.33970     -2.63650
Au      4.66350     18.96900     -1.69040
Au      2.07990     19.09730     -2.96500
Au     -0.50370     19.22560     -4.23940
Au      4.47440     18.98330     -4.56790
Au      1.89070     19.11160     -5.84240
Au      4.28530     18.99750     -7.44540
