184
Model[1]: Jmol 14.30.2  2019-11-26 10:18
C       1.95015      3.35154      0.46308
C      -4.28913      0.06698     -0.06900
C       1.16349     -3.86592     -0.66161
C       2.65922      2.55588     -0.61698
C       2.46514      3.16128     -1.88410
C       1.39114      4.17883     -1.75726
C       0.92647      4.13407     -0.37193
C      -0.46801      4.05617     -0.09796
H      -0.79450      3.83148      0.91886
C      -1.34890      3.99591     -1.16953
C      -0.90397      4.29633     -2.50841
C       0.42610      4.42432     -2.80793
H       0.76300      4.52075     -3.84114
C      -2.05476      4.09379     -3.47250
H      -2.56282      5.04962     -3.69265
H      -1.74172      3.66079     -4.43217
C      -2.94064      3.16957     -2.66172
C      -2.62414      3.28577     -1.28162
C      -3.69646      2.10432     -3.13764
H      -3.81431      1.94946     -4.21202
C      -4.09064      1.12029     -2.21562
C      -3.93007      1.33428     -0.81891
C      -3.22183      2.42721     -0.33879
H      -2.98115      2.50504      0.72349
C      -4.26349     -0.31838     -2.43694
C      -4.04989     -1.04531     -3.62203
H      -4.07071     -0.55254     -4.59613
C      -3.56647     -2.34350     -3.50599
C      -3.37053     -2.93681     -2.23335
C      -3.79658     -2.28817     -1.06498
H      -3.63447     -2.73530     -0.08234
C      -4.21296     -0.96568     -1.17549
C      -2.86930     -3.15819     -4.57971
H      -3.57209     -3.82800     -5.10204
H      -2.38521     -2.53032     -5.33989
C      -1.83912     -3.92734     -3.74076
C      -2.29604     -3.95470     -2.35287
C      -1.32397     -4.18959     -1.30580
H      -1.65377     -4.27795     -0.26953
C       0.00437     -4.06621     -1.61564
C       0.44018     -3.77171     -2.95888
C      -0.44714     -3.84561     -4.02436
H      -0.12840     -3.62895     -5.04537
C       1.71415     -3.05705     -2.85753
C       2.04383     -2.94380     -1.48017
C       2.80605     -1.88154     -1.00908
H       2.93588     -1.73007      0.06438
C       3.19002     -0.89451     -1.93174
C       3.01358     -1.10158     -3.32733
C       2.30042     -2.19357     -3.80358
H       2.04760     -2.26743     -4.86336
C       3.36288      0.17074     -4.07459
H       4.37176      0.11301     -4.52041
H       2.66206      0.39036     -4.89230
C       3.30272      1.19754     -2.96101
C       2.88791      2.52166     -3.05896
H       2.72156      2.97678     -4.03723
C       3.14930      1.25936     -0.51285
H       3.17216      0.75726      0.45640
C       3.36269      0.54287     -1.70415
H      -3.60238     -0.14674      0.76198
H      -5.30581      0.12674      0.35863
H       2.64530      4.01272      1.00619
H       1.45884      2.70825      1.20564
H       0.86104     -3.43255      0.30120
H       1.67056     -4.82357     -0.44714
Au      1.82109      6.13218     -0.91999
Au      1.79905      8.32791      0.94927
Au      4.28222      7.47362     -0.24233
Au      2.30080      8.82021     -1.84747
Au      1.77702     10.52365      2.81853
Au      4.26019      9.66935      1.62693
Au      6.74336      8.81505      0.43533
Au      2.27876     11.01595      0.02179
Au      4.76193     10.16165     -1.16981
Au      2.78050     11.50825     -2.77495
Au      1.75498     12.71938      4.68779
Au      4.23815     11.86508      3.49619
Au      6.72132     11.01079      2.30459
Au      9.20449     10.15649      1.11300
Au      2.25673     13.21168      1.89105
Au      4.73989     12.35738      0.69945
Au      7.22306     11.50309     -0.49215
Au      2.75847     13.70398     -0.90569
Au      5.24164     12.84968     -2.09729
Au      3.26021     14.19628     -3.70243
Au      1.73295     14.91511      6.55705
Au      4.21612     14.06082      5.36545
Au      6.69929     13.20652      4.17385
Au      9.18246     12.35222      2.98226
Au     11.66563     11.49793      1.79066
Au      2.23469     15.40741      3.76031
Au      4.71786     14.55312      2.56871
Au      7.20103     13.69882      1.37711
Au      9.68420     12.84452      0.18552
Au      2.73643     15.89971      0.96357
Au      5.21960     15.04542     -0.22803
Au      7.70277     14.19112     -1.41963
Au      3.23817     16.39201     -1.83317
Au      5.72134     15.53771     -3.02477
Au      3.73992     16.88431     -4.62991
Au      1.71091     17.11085      8.42631
Au      4.19408     16.25655      7.23471
Au      6.67725     15.40225      6.04311
Au      9.16042     14.54796      4.85151
Au     11.64359     13.69366      3.65992
Au     14.12676     12.83936      2.46832
Au      2.21265     17.60314      5.62957
Au      4.69582     16.74885      4.43797
Au      7.17899     15.89455      3.24637
Au      9.66216     15.04026      2.05477
Au     12.14533     14.18596      0.86318
Au      2.71440     18.09544      2.83283
Au      5.19757     17.24115      1.64123
Au      7.68074     16.38685      0.44963
Au     10.16391     15.53256     -0.74197
Au      3.21614     18.58774      0.03609
Au      5.69931     17.73345     -1.15551
Au      8.18248     16.87915     -2.34711
Au      3.71788     19.08004     -2.76065
Au      6.20105     18.22575     -3.95225
Au      4.21962     19.57234     -5.55739
Au     -0.22645     14.06598      3.08264
Au      7.72481     11.99539     -3.28889
Au      8.68071     11.85992      5.77900
Au     -2.72639     -5.92624     -3.13481
Au     -4.46989     -7.46417     -4.84093
Au     -2.10616     -8.68034     -3.72310
Au     -4.34126     -8.03822     -2.01786
Au     -6.21338     -9.00210     -6.54706
Au     -3.84965    -10.21827     -5.42922
Au     -1.48592    -11.43445     -4.31139
Au     -6.08475     -9.57615     -3.72398
Au     -3.72102    -10.79233     -2.60614
Au     -5.95613    -10.15021     -0.90090
Au     -7.95688    -10.54002     -8.25318
Au     -5.59315    -11.75620     -7.13535
Au     -3.22942    -12.97237     -6.01751
Au     -0.86569    -14.18855     -4.89967
Au     -7.82825    -11.11408     -5.43010
Au     -5.46452    -12.33025     -4.31227
Au     -3.10079    -13.54643     -3.19443
Au     -7.69962    -11.68813     -2.60703
Au     -5.33589    -12.90431     -1.48919
Au     -7.57100    -12.26219      0.21605
Au     -9.70037    -12.07795     -9.95931
Au     -7.33664    -13.29413     -8.84147
Au     -4.97291    -14.51030     -7.72364
Au     -2.60918    -15.72648     -6.60580
Au     -0.24545    -16.94265     -5.48796
Au     -9.57174    -12.65201     -7.13623
Au     -7.20801    -13.86818     -6.01839
Au     -4.84428    -15.08436     -4.90056
Au     -2.48055    -16.30053     -3.78272
Au     -9.44312    -13.22606     -4.31315
Au     -7.07939    -14.44224     -3.19531
Au     -4.71566    -15.65841     -2.07748
Au     -9.31449    -13.80012     -1.49007
Au     -6.95076    -15.01629     -0.37224
Au     -9.18586    -14.37417      1.33301
Au    -11.44387    -13.61588    -11.66543
Au     -9.08014    -14.83206    -10.54760
Au     -6.71641    -16.04823     -9.42976
Au     -4.35268    -17.26440     -8.31192
Au     -1.98895    -18.48058     -7.19409
Au      0.37478    -19.69675     -6.07625
Au    -11.31524    -14.18994     -8.84235
Au     -8.95151    -15.40611     -7.72452
Au     -6.58778    -16.62229     -6.60668
Au     -4.22405    -17.83847     -5.48884
Au     -1.86032    -19.05463     -4.37101
Au    -11.18661    -14.76399     -6.01927
Au     -8.82288    -15.98016     -4.90144
Au     -6.45915    -17.19634     -3.78360
Au     -4.09542    -18.41251     -2.66577
Au    -11.05799    -15.33804     -3.19620
Au     -8.69426    -16.55422     -2.07836
Au     -6.33053    -17.77039     -0.96052
Au    -10.92936    -15.91210     -0.37312
Au     -8.56563    -17.12827      0.74472
Au    -10.80073    -16.48615      2.44996
Au     -3.35804    -12.39832     -8.84059
Au    -11.93547    -11.43583     -8.25407
Au     -4.58703    -16.23247      0.74560
