  436

Au      0.000000    0.000000    0.000000
Au     -2.883826    0.000000    0.000000
Au     -5.767651    0.000000    0.000000
Au     -8.651477    0.000000    0.000000
Au    -11.535302    0.000000    0.000000
Au      1.441912   -2.496933    0.000000
Au     -1.441913   -2.496933    0.000000
Au     -4.325739   -2.496933    0.000000
Au     -7.209564   -2.496933    0.000000
Au    -10.093390   -2.496933    0.000000
Au      2.883825   -4.994389    0.000000
Au      0.000000   -4.994389    0.000000
Au     -2.883826   -4.994389    0.000000
Au     -5.767651   -4.994389    0.000000
Au     -8.651477   -4.994389    0.000000
Au      4.325738   -7.491849    0.000000
Au      1.441912   -7.491849    0.000000
Au     -1.441913   -7.491849    0.000000
Au     -4.325739   -7.491849    0.000000
Au     -7.209564   -7.491849    0.000000
Au      5.767651   -9.989307    0.000000
Au      2.883825   -9.989307    0.000000
Au      0.000000   -9.989307    0.000000
Au     -2.883826   -9.989307    0.000000
Au     -5.767651   -9.989307    0.000000
Au      1.441912   -0.832134    2.355279
Au     -1.441913   -0.832134    2.355279
Au     -4.325739   -0.832134    2.355279
Au     -7.209564   -0.832134    2.355279
Au    -10.093390   -0.832134    2.355279
Au      2.883299   -3.329594    2.355279
Au      0.000000   -3.329594    2.355279
Au     -2.883826   -3.329594    2.355279
Au     -5.767651   -3.329594    2.355279
Au     -8.651477   -3.329594    2.355279
Au      4.325215   -5.827050    2.355279
Au      1.441912   -5.827050    2.355279
Au     -1.441913   -5.827050    2.355279
Au     -4.325739   -5.827050    2.355279
Au     -7.209564   -5.827050    2.355279
Au      5.767127   -8.324510    2.355279
Au      2.883299   -8.324510    2.355279
Au      0.000000   -8.324510    2.355279
Au     -2.883826   -8.324510    2.355279
Au     -5.767651   -8.324510    2.355279
Au      7.209040  -10.821968    2.355279
Au      4.325215  -10.821968    2.355279
Au      1.441912  -10.821968    2.355279
Au     -1.441913  -10.821968    2.355279
Au     -4.325739  -10.821968    2.355279
Au      0.000000   -1.664795    4.709553
Au     -2.883826   -1.664795    4.709553
Au     -5.767651   -1.664795    4.709553
Au     -8.651477   -1.664795    4.709553
Au      2.883825   -1.664795    4.709553
Au      1.441912   -4.162255    4.709553
Au     -1.441913   -4.162255    4.709553
Au     -4.325739   -4.162255    4.709553
Au     -7.209564   -4.162255    4.709553
Au      4.325738   -4.162255    4.709553
Au      2.883825   -6.659713    4.709553
Au      0.000000   -6.659713    4.709553
Au     -2.883826   -6.659713    4.709553
Au     -5.767651   -6.659713    4.709553
Au      5.767651   -6.659713    4.709553
Au      4.325738   -9.157171    4.709553
Au      1.441912   -9.157171    4.709553
Au     -1.441913   -9.157171    4.709553
Au     -4.325739   -9.157171    4.709553
Au      7.209563   -9.157171    4.709553
Au      5.767651  -11.654629    4.709553
Au      2.883825  -11.654629    4.709553
Au      0.000000  -11.654629    4.709553
Au     -2.883826  -11.654629    4.709553
Au      8.651476  -11.654629    4.709553
Au      0.000000    0.000000    7.063826
Au     -2.883826    0.000000    7.063826
Au     -5.767651    0.000000    7.063826
Au     -8.651477    0.000000    7.063826
Au    -11.535302    0.000000    7.063826
Au      1.441912   -2.496933    7.063826
Au     -1.441913   -2.496933    7.063826
Au     -4.325739   -2.496933    7.063826
Au     -7.209564   -2.496933    7.063826
Au    -10.093390   -2.496933    7.063826
Au      2.883825   -4.994389    7.063826
Au      0.000000   -4.994389    7.063826
Au     -2.883826   -4.994389    7.063826
Au     -5.767651   -4.994389    7.063826
Au     -8.651477   -4.994389    7.063826
Au      4.325738   -7.491849    7.063826
Au      1.441912   -7.491849    7.063826
Au     -1.441913   -7.491849    7.063826
Au     -4.325739   -7.491849    7.063826
Au     -7.209564   -7.491849    7.063826
Au      5.767651   -9.989307    7.063826
Au      2.883825   -9.989307    7.063826
Au      0.000000   -9.989307    7.063826
Au     -2.883826   -9.989307    7.063826
Au     -5.767651   -9.989307    7.063826
Au      1.441912   -0.832134    9.418099
Au     -1.441913   -0.832134    9.418099
Au     -4.325739   -0.832134    9.418099
Au     -7.209564   -0.832134    9.418099
Au    -10.093390   -0.832134    9.418099
Au      2.883299   -3.329594    9.418099
Au      0.000000   -3.329594    9.418099
Au     -2.883826   -3.329594    9.418099
Au     -5.767651   -3.329594    9.418099
Au     -8.651477   -3.329594    9.418099
Au      4.325215   -5.827050    9.418099
Au      1.441912   -5.827050    9.418099
Au     -1.441913   -5.827050    9.418099
Au     -4.325739   -5.827050    9.418099
Au     -7.209564   -5.827050    9.418099
Au      5.767127   -8.324510    9.418099
Au      2.883299   -8.324510    9.418099
Au      0.000000   -8.324510    9.418099
Au     -2.883826   -8.324510    9.418099
Au     -5.767651   -8.324510    9.418099
Au      7.209040  -10.821968    9.418099
Au      4.325215  -10.821968    9.418099
Au      1.441912  -10.821968    9.418099
Au     -1.441913  -10.821968    9.418099
Au     -4.325739  -10.821968    9.418099
Au      0.000000   -1.664795   11.773379
Au     -2.883826   -1.664795   11.773379
Au     -5.767651   -1.664795   11.773379
Au     -8.651477   -1.664795   11.773379
Au      2.883825   -1.664795   11.773379
Au      1.441912   -4.162255   11.773379
Au     -1.441913   -4.162255   11.773379
Au     -4.325739   -4.162255   11.773379
Au     -7.209564   -4.162255   11.773379
Au      4.325738   -4.162255   11.773379
Au      2.883825   -6.659713   11.773379
Au      0.000000   -6.659713   11.773379
Au     -2.883826   -6.659713   11.773379
Au     -5.767651   -6.659713   11.773379
Au      5.767651   -6.659713   11.773379
Au      4.325738   -9.157171   11.773379
Au      1.441912   -9.157171   11.773379
Au     -1.441913   -9.157171   11.773379
Au     -4.325739   -9.157171   11.773379
Au      7.209563   -9.157171   11.773379
Au      5.767651  -11.654629   11.773379
Au      2.883825  -11.654629   11.773379
Au      0.000000  -11.654629   11.773379
Au     -2.883826  -11.654629   11.773379
Au      8.651476  -11.654629   11.773379
Au     -1.439284   -2.488520   14.438405
Au     -5.777114   -4.994389   14.440416
Au      0.002102   -4.994389   14.443432
Au     -4.330470   -2.491149   14.444438
Au     -1.439811   -7.495003   14.444438
Au    -10.094967   -2.495354   14.444438
Au     -5.771331   -9.989307   14.446450
Au     -8.654630    0.000000   14.446450
Au      5.764499   -9.986154   14.446450
Au      4.322586   -7.489747   14.447456
Au      2.882249   -9.988256   14.447456
Au     -0.001576   -9.989832   14.448462
Au    -11.536880    0.002103   14.448462
Au     -4.331521   -7.496580   14.448462
Au     -8.657259   -4.994389   14.450473
Au     -5.770805    0.003156   14.452484
Au      2.880673   -4.992813   14.452484
Au     -2.884877    0.003156   14.452484
Au      0.000000    0.003679   14.453489
Au     -7.212193   -2.497459   14.457513
Au     -2.885402   -9.988256   14.458518
Au     -7.212193   -7.490798   14.458518
Au      1.440863   -7.492374   14.459524
Au      1.441386   -2.495880   14.461535
Au     -2.890133   -5.000700   14.508801
Au     -2.880526   -3.050222   16.977919
Au     -1.267521   -5.706634   17.044897
Au     -4.476942   -5.718067   17.061047
Au      0.168086   -8.416041   17.010537
Au     -2.861108   -8.399400   17.121593
Au     -5.885214   -8.411295   17.033972
Au     -2.854008   -4.762794   19.376776
Au     -1.168510   -7.398524   19.520455
Au     -4.461880   -7.406512   19.582291
Au     -2.746348   -6.441272   21.743891
H      -2.613897   -9.112365   22.430353
C      -1.112795   -6.904010   23.223692
C      -4.320684   -7.062180   23.223096
H      -0.250575   -4.886459   23.287643
H      -5.358838   -5.129496   23.282863
C      -2.617453   -8.957759   23.534763
C      -0.428358   -5.829177   23.837195
C      -5.087484   -6.045365   23.838917
C      -1.433040   -8.077473   23.963745
C      -3.876496   -8.190650   23.968837
H      -2.570503   -9.952894   24.028340
C      -0.066554   -5.931663   25.192637
C      -0.861157   -8.257767   25.245819
C      -5.410417   -6.162966   25.202199
C      -4.407301   -8.406784   25.262524
H      -1.065376   -9.183636   25.814552
H      -4.110580   -9.302488   25.838019
C      -0.197975   -7.176556   25.869124
C      -5.155407   -7.383819   25.886144
H       1.334859   -4.436157   26.011314
H      -6.927412   -4.787186   26.023562
H      -0.390617   -3.978408   26.122555
C       0.308791   -4.842282   26.183361
H      -5.245866   -4.185066   26.119866
C      -5.869837   -5.104450   26.189927
C       0.144110   -6.974681   27.285861
C      -5.506515   -7.209055   27.302072
C       0.245028   -5.567153   27.516441
C      -5.735546   -5.815393   27.525667
H       0.271763   -8.976788   28.183919
H      -5.456438   -9.212200   28.208163
C       0.254567   -7.886622   28.360439
C      -5.536282   -8.124138   28.378878
C       0.151491   -5.048406   28.815917
C      -5.697448   -5.284348   28.822582
H       0.090288   -3.959740   28.989653
H      -5.742858   -4.194502   28.992852
C       0.282701   -7.364638   29.660701
C      -5.620577   -7.599801   29.675243
C       0.082421   -5.967129   29.890569
C      -5.549147   -6.189235   29.900283
C       0.362000   -8.095463   30.988820
H      -0.293580   -8.994692   31.027518
C      -5.649423   -8.328856   31.005490
H      -4.913708   -9.163248   31.058542
H       1.403554   -8.449392   31.179640
H      -6.656484   -8.776818   31.184334
C      -0.291053   -5.797071   31.304557
C      -5.202472   -5.981519   31.315821
H      -1.267857   -3.840028   31.376095
H      -4.378320   -3.955916   31.377232
C      -1.014364   -4.759369   31.935741
C      -0.092401   -7.036587   31.976398
C      -4.567978   -4.886443   31.943314
C      -5.305861   -7.229426   31.993336
H      -2.845945   -3.188213   33.149991
C      -1.577361   -4.981462   33.215928
C      -3.996132   -5.057646   33.226847
C      -0.460577   -7.174104   33.327018
C      -4.949442   -7.327547   33.349509
C      -2.811217   -4.179377   33.651605
H      -0.238758   -8.112800   33.866402
H      -5.109074   -8.275059   33.895202
C      -1.202839   -6.143260   33.946751
C      -4.296832   -6.235677   33.965435
H      -2.811781   -4.019319   34.755040
Au     -2.731547   -6.679007   35.525760
Au     -1.150402   -5.906794   37.828874
Au     -4.446225   -5.912782   37.782748
Au     -2.826888   -8.506718   37.890400
Au      0.188781   -4.980923   40.355360
Au     -2.842292   -4.951811   40.230380
Au     -5.868352   -4.969184   40.332091
Au     -1.252744   -7.654360   40.295280
Au     -4.444642   -7.642227   40.283067
Au     -2.864642  -10.239311   40.351982
Au     -2.878043   -6.723844   42.887184
Au     -1.436656   -4.227439   42.892210
Au     -4.319956   -4.225860   42.894221
Au     -5.760818   -6.722793   42.896235
Au     -8.645694   -1.728403   42.897239
Au     -2.877517  -11.719287   42.899250
Au     -7.203782   -4.226386   42.901261
Au     -5.760818   -1.729453   42.902268
Au      2.890135   -1.729453   42.902268
Au     -4.320481   -9.221304   42.902268
Au     -1.436656   -9.220777   42.902268
Au      5.773961   -6.723844   42.903273
Au      0.005784  -11.718762   42.903273
Au      1.447696   -9.221829   42.903273
Au      2.889609  -11.718236   42.903273
Au      4.332571   -9.221829   42.904280
Au      2.889083   -6.724370   42.904280
Au      0.006307   -1.729979   42.904280
Au      4.332571   -4.226386   42.904280
Au      0.005784   -6.723844   42.904280
Au      1.448220   -4.225860   42.904280
Au      7.215347   -9.221304   42.904280
Au     -2.876992   -1.729453   42.904280
Au      5.774484  -11.719813   42.904280
Au      8.658310  -11.718762   42.905284
Au      0.000000    0.000000   45.579362
Au     -2.883826    0.000000   45.579362
Au     -5.767651    0.000000   45.579362
Au     -8.651477    0.000000   45.579362
Au    -11.535302    0.000000   45.579362
Au      1.441912   -2.496933   45.579362
Au     -1.441913   -2.496933   45.579362
Au     -4.325739   -2.496933   45.579362
Au     -7.209564   -2.496933   45.579362
Au    -10.093390   -2.496933   45.579362
Au      2.883825   -4.994389   45.579362
Au      0.000000   -4.994389   45.579362
Au     -2.883826   -4.994389   45.579362
Au     -5.767651   -4.994389   45.579362
Au     -8.651477   -4.994389   45.579362
Au      4.325738   -7.491849   45.579362
Au      1.441912   -7.491849   45.579362
Au     -1.441913   -7.491849   45.579362
Au     -4.325739   -7.491849   45.579362
Au     -7.209564   -7.491849   45.579362
Au      5.767651   -9.989307   45.579362
Au      2.883825   -9.989307   45.579362
Au      0.000000   -9.989307   45.579362
Au     -2.883826   -9.989307   45.579362
Au     -5.767651   -9.989307   45.579362
Au      1.441912   -0.832134   47.934639
Au     -1.441913   -0.832134   47.934639
Au     -4.325739   -0.832134   47.934639
Au     -7.209564   -0.832134   47.934639
Au    -10.093390   -0.832134   47.934639
Au      2.883299   -3.329594   47.934639
Au      0.000000   -3.329594   47.934639
Au     -2.883826   -3.329594   47.934639
Au     -5.767651   -3.329594   47.934639
Au     -8.651477   -3.329594   47.934639
Au      4.325215   -5.827050   47.934639
Au      1.441912   -5.827050   47.934639
Au     -1.441913   -5.827050   47.934639
Au     -4.325739   -5.827050   47.934639
Au     -7.209564   -5.827050   47.934639
Au      5.767127   -8.324510   47.934639
Au      2.883299   -8.324510   47.934639
Au      0.000000   -8.324510   47.934639
Au     -2.883826   -8.324510   47.934639
Au     -5.767651   -8.324510   47.934639
Au      7.209040  -10.821968   47.934639
Au      4.325215  -10.821968   47.934639
Au      1.441912  -10.821968   47.934639
Au     -1.441913  -10.821968   47.934639
Au     -4.325739  -10.821968   47.934639
Au      0.000000   -1.664795   50.288915
Au     -2.883826   -1.664795   50.288915
Au     -5.767651   -1.664795   50.288915
Au     -8.651477   -1.664795   50.288915
Au      2.883825   -1.664795   50.288915
Au      1.441912   -4.162255   50.288915
Au     -1.441913   -4.162255   50.288915
Au     -4.325739   -4.162255   50.288915
Au     -7.209564   -4.162255   50.288915
Au      4.325738   -4.162255   50.288915
Au      2.883825   -6.659713   50.288915
Au      0.000000   -6.659713   50.288915
Au     -2.883826   -6.659713   50.288915
Au     -5.767651   -6.659713   50.288915
Au      5.767651   -6.659713   50.288915
Au      4.325738   -9.157171   50.288915
Au      1.441912   -9.157171   50.288915
Au     -1.441913   -9.157171   50.288915
Au     -4.325739   -9.157171   50.288915
Au      7.209563   -9.157171   50.288915
Au      5.767651  -11.654629   50.288915
Au      2.883825  -11.654629   50.288915
Au      0.000000  -11.654629   50.288915
Au     -2.883826  -11.654629   50.288915
Au      8.651476  -11.654629   50.288915
Au      0.000000    0.000000   52.644191
Au     -2.883826    0.000000   52.644191
Au     -5.767651    0.000000   52.644191
Au     -8.651477    0.000000   52.644191
Au    -11.535302    0.000000   52.644191
Au      1.441912   -2.496933   52.644191
Au     -1.441913   -2.496933   52.644191
Au     -4.325739   -2.496933   52.644191
Au     -7.209564   -2.496933   52.644191
Au    -10.093390   -2.496933   52.644191
Au      2.883825   -4.994389   52.644191
Au      0.000000   -4.994389   52.644191
Au     -2.883826   -4.994389   52.644191
Au     -5.767651   -4.994389   52.644191
Au     -8.651477   -4.994389   52.644191
Au      4.325738   -7.491849   52.644191
Au      1.441912   -7.491849   52.644191
Au     -1.441913   -7.491849   52.644191
Au     -4.325739   -7.491849   52.644191
Au     -7.209564   -7.491849   52.644191
Au      5.767651   -9.989307   52.644191
Au      2.883825   -9.989307   52.644191
Au      0.000000   -9.989307   52.644191
Au     -2.883826   -9.989307   52.644191
Au     -5.767651   -9.989307   52.644191
Au      1.441912   -0.832134   54.999470
Au     -1.441913   -0.832134   54.999470
Au     -4.325739   -0.832134   54.999470
Au     -7.209564   -0.832134   54.999470
Au    -10.093390   -0.832134   54.999470
Au      2.883299   -3.329594   54.999470
Au      0.000000   -3.329594   54.999470
Au     -2.883826   -3.329594   54.999470
Au     -5.767651   -3.329594   54.999470
Au     -8.651477   -3.329594   54.999470
Au      4.325215   -5.827050   54.999470
Au      1.441912   -5.827050   54.999470
Au     -1.441913   -5.827050   54.999470
Au     -4.325739   -5.827050   54.999470
Au     -7.209564   -5.827050   54.999470
Au      5.767127   -8.324510   54.999470
Au      2.883299   -8.324510   54.999470
Au      0.000000   -8.324510   54.999470
Au     -2.883826   -8.324510   54.999470
Au     -5.767651   -8.324510   54.999470
Au      7.209040  -10.821968   54.999470
Au      4.325215  -10.821968   54.999470
Au      1.441912  -10.821968   54.999470
Au     -1.441913  -10.821968   54.999470
Au     -4.325739  -10.821968   54.999470
Au      0.000000   -1.664795   57.353744
Au     -2.883826   -1.664795   57.353744
Au     -5.767651   -1.664795   57.353744
Au     -8.651477   -1.664795   57.353744
Au      2.883825   -1.664795   57.353744
Au      1.441912   -4.162255   57.353744
Au     -1.441913   -4.162255   57.353744
Au     -4.325739   -4.162255   57.353744
Au     -7.209564   -4.162255   57.353744
Au      4.325738   -4.162255   57.353744
Au      2.883825   -6.659713   57.353744
Au      0.000000   -6.659713   57.353744
Au     -2.883826   -6.659713   57.353744
Au     -5.767651   -6.659713   57.353744
Au      5.767651   -6.659713   57.353744
Au      4.325738   -9.157171   57.353744
Au      1.441912   -9.157171   57.353744
Au     -1.441913   -9.157171   57.353744
Au     -4.325739   -9.157171   57.353744
Au      7.209563   -9.157171   57.353744
Au      5.767651  -11.654629   57.353744
Au      2.883825  -11.654629   57.353744
Au      0.000000  -11.654629   57.353744
Au     -2.883826  -11.654629   57.353744
Au      8.651476  -11.654629   57.353744
