88
Model[1]: Jmol 14.30.2  2019-11-26 10:18
C       5.02840     -1.77590      1.04850
C       4.39680     -2.97350      1.37050
C       3.85970     -3.70530      0.30730
C       4.14290     -3.35780     -1.04850
C       4.83350     -2.19330     -1.37050
C       5.17660     -1.35280     -0.30730
C       5.30380      0.55511      1.04850
C       5.34930      0.10910     -0.30730
C       5.21160      1.00640     -1.37050
C       4.81140      2.29980     -1.04850
C       4.61700      2.70380      0.30730
C       4.96870      1.86690      1.37050
C       3.70540      3.85970      0.30730
C       3.35780      4.14290     -1.04850
C       2.19330      4.83350     -1.37050
C       1.35280      5.17650     -0.30730
C       1.77590      5.02840      1.04850
C       2.97350      4.39680      1.37050
C      -1.00640      5.21150     -1.37050
C      -2.29980      4.81140     -1.04850
C      -2.70380      4.61700      0.30730
C      -1.86690      4.96870      1.37050
C      -0.55511      5.30380      1.04850
C      -0.10910      5.34930     -0.30730
C       1.86690     -4.96870      1.37050
C       0.55511     -5.30380      1.04850
C       0.10910     -5.34930     -0.30730
C       1.00640     -5.21150     -1.37050
C       2.29980     -4.81140     -1.04850
C       2.70380     -4.61700      0.30730
C      -1.35280     -5.17650     -0.30730
C      -1.77590     -5.02840      1.04850
C      -2.97350     -4.39680      1.37050
C      -3.70540     -3.85970      0.30730
C      -3.35780     -4.14290     -1.04850
C      -2.19330     -4.83350     -1.37050
C      -4.81140     -2.29980     -1.04850
C      -4.61700     -2.70380      0.30730
C      -4.96870     -1.86690      1.37050
C      -5.30380     -0.55511      1.04850
C      -5.34930     -0.10910     -0.30730
C      -5.21160     -1.00640     -1.37050
C      -4.14290      3.35780     -1.04850
C      -4.83350      2.19330     -1.37050
C      -5.17660      1.35280     -0.30730
C      -5.02840      1.77590      1.04850
C      -4.39680      2.97350      1.37050
C      -3.85970      3.70530      0.30730
C       0.63510      5.37540      1.98200
C      -3.35190      4.25010     -1.98200
C      -5.37550      0.63510      1.98200
C      -4.25010     -3.35190     -1.98200
C      -0.63510     -5.37540      1.98200
C       3.35190     -4.25010     -1.98200
C       5.37550     -0.63510      1.98200
C       4.25010      3.35190     -1.98200
H       4.24030     -3.27790      2.40040
H       5.01120     -1.90070     -2.40040
H       5.31620      0.68050     -2.40040
H       4.88750      2.19940      2.40040
H       1.90070      5.01110     -2.40040
H       3.27790      4.24030      2.40040
H      -0.68050      5.31610     -2.40040
H      -2.19940      4.88740      2.40040
H       2.19940     -4.88740      2.40040
H       0.68050     -5.31610     -2.40040
H      -3.27790     -4.24030      2.40040
H      -1.90070     -5.01110     -2.40040
H      -4.88750     -2.19940      2.40040
H      -5.31620     -0.68050     -2.40040
H      -5.01120      1.90070     -2.40040
H      -4.24030      3.27790      2.40040
H       0.55200      4.67180      2.82840
H       0.75460      6.38690      2.41620
H      -2.91320      3.69380     -2.82840
H      -3.98260      5.04990     -2.41620
H      -4.67190      0.55200      2.82840
H      -6.38700      0.75460      2.41620
H      -5.04990     -3.98260     -2.41620
H      -3.69380     -2.91320     -2.82840
H      -0.55200     -4.67180      2.82840
H      -0.75460     -6.38690      2.41620
H       3.98260     -5.04990     -2.41620
H       2.91320     -3.69380     -2.82840
H       4.67190     -0.55200      2.82840
H       6.38700     -0.75460      2.41620
H       3.69380      2.91320     -2.82840
H       5.04990      3.98260     -2.41620
